Assignment 3/Power-System-Analysis/Test_Scenario/High_Load.txt
High Load-----------------------------------------------------------------------------

 =====================================================================================
| System MVA Base:      100.0 MVA                                                   |
=====================================================================================
| Bus results                                                                       |
=====================================================================================
  Bus       Bus          Voltage             Generation                  Load
   #       Label    Mag(pu)  Ang(deg)   P (pu)  Q(pu)   loading     P (pu)  Q(pu)
 -----   ---------  -------  -------  -------  --------  -------   -------  -------
  *1*      BUS1      1.000     0.00    0.705     0.570    90.68%      -         -
   2       BUS2      0.946    -4.28      -         -       -        0.500     0.300
   3       BUS3      0.942    -4.43      -         -       -        0.500     0.300
   4       BUS4      0.947    -3.70      -         -       -        0.500     0.300
   5       BUS5      0.943    -3.98      -         -       -        0.500     0.300
   6       BUS6      0.954    -2.93      -         -       -        0.500     0.300
   7       BUS7      1.000     2.49    1.800     1.001   102.98%      -         -

 ==============================================================================
| Branch flow                                                                 |
 ==============================================================================
|Branch  From   To        From Bus Injection              To Bus Injection    |
|  #     Bus    Bus    P (pu)   Q (pu)  loading        P (pu)   Q (pu) loading|
 -----  -----  -----  -------  -------- -------        ------- ------- -------
   1       2      3     0.205   0.188     6.96%        -0.205  -0.210    7.34%
   2       3      4    -0.295  -0.090     7.72%         0.296   0.028    7.43%
   3       4      5     0.125   0.039     3.27%        -0.125  -0.101    4.00%
   4       4      6    -0.921  -0.367    24.78%         0.923   0.359   24.77%
   5       5      6    -0.375  -0.199    10.63%         0.377   0.130    9.96%
   6       1      2     0.705   0.570    90.68%        -0.705  -0.488   85.75%
   7       6      7    -1.800  -0.789    98.27%         1.800   1.001  102.98%

-----------------------Violations!-----------------------

 --> Generator at bus 1 overloaded (Qgen = 57.05  > 43.50 [MVAr])
 --> Generator at bus 7 overloaded (Loading = 102.98  [%])
 --> Generator at bus 7 overloaded (Qgen = 100.11  > 87.00 [MVAr])
 --> Branch #7 - from bus 6 to bus 7 (ID:1 ) overloaded (fr:98.27%, to:102.98%)
 --> Voltages too low at ...
      Bus 2    ->  0.946 pu < V_min: 0.950 pu
      Bus 3    ->  0.942 pu < V_min: 0.950 pu
      Bus 4    ->  0.947 pu < V_min: 0.950 pu
      Bus 5    ->  0.943 pu < V_min: 0.950 pu